tests/data/correct/WECC240_M21_psse33_v02.raw
 0,    100.00, 33, 0, 0, 60.00       / March 17, 2017 15:51:35; Simulator Version 19; BuildDate 2017_1_17
SIMPLIFIED WECC240 MODEL: PRELIMINARY DRAFT, RESEARCH ONLY
FOR PSERC PROJECT M21 - SEE PROJECT DOCUMENTS FOR DETAILS
 1001,'FOURCORN    ', 500.0000,1,  10,  10,   1,1.02983999,   7.284000, 1.10000, 0.90000, 1.10000, 0.90000
 1002,'FOURCORN    ', 345.0000,1,  10,  10,   1,1.01400006,  11.035100, 1.10000, 0.90000, 1.10000, 0.90000
 1003,'FOURCORN    ', 230.0000,1,  10,  10,   1,0.97318000,   2.374600, 1.10000, 0.90000, 1.10000, 0.90000
 1004,'SAN JUAN    ', 345.0000,1,  10,  10,   1,1.06648004,  23.695501, 1.10000, 0.90000, 1.10000, 0.90000
 1032,'FCNGN4CC    ',  20.0000,2,  10,  10,   1,1.01659000,  11.615400, 1.10000, 0.90000, 1.10000, 0.90000
 1034,'SJUAN G4    ',  20.0000,2,  10,  10,   1,1.07305002,  25.407100, 1.10000, 0.90000, 1.10000, 0.90000
 1101,'CORONADO    ', 500.0000,1,  10,  10,   1,1.00999999, -18.420600, 1.10000, 0.90000, 1.10000, 0.90000
 1102,'CHOLLA      ', 345.0000,1,  10,  10,   1,0.97727001,  -6.497300, 1.10000, 0.90000, 1.10000, 0.90000
 1131,'CORONADO    ',  20.0000,2,  10,  10,   1,1.01126003, -17.893200, 1.10000, 0.90000, 1.10000, 0.90000
 1201,'MOENKOPI    ', 500.0000,1,  10,  10,   1,1.08432996,  -8.997700, 1.10000, 0.90000, 1.10000, 0.90000
 1202,'NAVAJO      ', 500.0000,1,  10,  10,   1,1.08000004,  -6.012300, 1.10000, 0.90000, 1.10000, 0.90000
 1232,'NAVAJO 2    ',  20.0000,2,  10,  10,   1,1.08070004,  -5.181500, 1.10000, 0.90000, 1.10000, 0.90000
 1301,'MEAD        ', 500.0000,1,  10,  10,   1,1.04499996, -13.099900, 1.10000, 0.90000, 1.10000, 0.90000
 1302,'H ALLEN     ', 500.0000,1,  10,  10,   1,1.02783000, -12.416000, 1.10000, 0.90000, 1.10000, 0.90000
 1303,'H ALLEN     ', 345.0000,1,  10,  10,   1,1.00500000, -14.569400, 1.10000, 0.90000, 1.10000, 0.90000
 1331,'HOOVER      ',  20.0000,2,  10,  10,   1,1.04551995, -12.019600, 1.10000, 0.90000, 1.10000, 0.90000
 1333,'H ALLEN     ',  20.0000,2,  10,  10,   1,1.00803006, -13.114200, 1.10000, 0.90000, 1.10000, 0.90000
 1401,'PALOVRDE    ', 500.0000,1,  10,  10,   1,1.03499997, -19.463900, 1.10000, 0.90000, 1.10000, 0.90000
 1402,'WESTWING    ', 500.0000,1,  10,  10,   1,1.05631006, -24.316699, 1.10000, 0.90000, 1.10000, 0.90000
 1403,'PARKER      ', 230.0000,1,  10,  10,   1,1.03567004, -19.384700, 1.10000, 0.90000, 1.10000, 0.90000
 1431,'PALOVRD2    ',  20.0000,2,  10,  10,   1,1.04033995, -17.103999, 1.10000, 0.90000, 1.10000, 0.90000
 2000,'MEXICO      ', 230.0000,1,  20,  20,   1,1.00000000, -24.537501, 1.10000, 0.90000, 1.10000, 0.90000
 2030,'MEXICO      ',  20.0000,2,  20,  20,   1,1.00143003, -23.834300, 1.10000, 0.90000, 1.10000, 0.90000
 2100,'IMPERIAL    ', 230.0000,1,  21,  21,   1,1.03404999, -18.959900, 1.10000, 0.90000, 1.10000, 0.90000
 2130,'IMPERIAL    ',  20.0000,2,  21,  21,   1,1.03490996, -18.604300, 1.10000, 0.90000, 1.10000, 0.90000
 2201,'MIGUEL      ', 500.0000,1,  22,  22,   1,0.98830998, -35.087201, 1.10000, 0.90000, 1.10000, 0.90000
 2202,'MIGUEL      ', 230.0000,1,  22,  22,   1,0.98575002, -36.453601, 1.10000, 0.90000, 1.10000, 0.90000
 2203,'MISSION     ', 230.0000,1,  22,  22,   1,1.00500000, -37.041700, 1.10000, 0.90000, 1.10000, 0.90000
 2233,'MISSION     ',  20.0000,2,  22,  22,   1,1.00732005, -36.760399, 1.10000, 0.90000, 1.10000, 0.90000
 2301,'IMPRLVLY    ', 500.0000,1,  22,  23,   1,1.03447998, -21.832399, 1.10000, 0.90000, 1.10000, 0.90000
 2302,'IMPRLVLY    ', 230.0000,1,  22,  23,   1,1.03499997, -20.765899, 1.10000, 0.90000, 1.10000, 0.90000
 2332,'IMPRLVLY    ',  20.0000,2,  22,  23,   1,1.03542995, -20.531200, 1.10000, 0.90000, 1.10000, 0.90000
 2400,'DEVERS      ', 500.0000,1,  24,  24,   1,1.02049994, -26.368900, 1.10000, 0.90000, 1.10000, 0.90000
 2401,'LUGO        ', 500.0000,1,  24,  24,   1,1.02998996, -19.144201, 1.10000, 0.90000, 1.10000, 0.90000
 2402,'MIRALOMA    ', 500.0000,1,  24,  24,   1,1.01312006, -24.532200, 1.10000, 0.90000, 1.10000, 0.90000
 2403,'VALLEY      ', 500.0000,1,  24,  24,   1,1.01289999, -29.211998, 1.10000, 0.90000, 1.10000, 0.90000
 2404,'VINCENT     ', 500.0000,1,  24,  24,   1,1.01542997, -12.983800, 1.10000, 0.90000, 1.10000, 0.90000
 2405,'SYLMAR S    ', 230.0000,1,  24,  24,   1,1.01124001, -15.917700, 1.10000, 0.90000, 1.10000, 0.90000
 2406,'EAGLROCK    ', 230.0000,1,  24,  24,   1,1.00188994, -16.892999, 1.10000, 0.90000, 1.10000, 0.90000
 2407,'LITEHIPE    ', 230.0000,1,  24,  24,   1,0.96837997, -19.000599, 1.10000, 0.90000, 1.10000, 0.90000
 2408,'MESA CAL    ', 230.0000,1,  24,  24,   1,1.00899994,  -5.959100, 1.10000, 0.90000, 1.10000, 0.90000
 2409,'MIRALOMA    ', 230.0000,1,  24,  24,   1,1.00678003, -26.481799, 1.10000, 0.90000, 1.10000, 0.90000
 2410,'PARDEE      ', 230.0000,1,  24,  24,   1,1.00274003, -19.561500, 1.10000, 0.90000, 1.10000, 0.90000
 2411,'VINCENT     ', 230.0000,1,  24,  24,   1,1.00888002, -15.336601, 1.10000, 0.90000, 1.10000, 0.90000
 2438,'MESA CAL    ',  20.0000,2,  24,  24,   1,1.01283002,  -3.902100, 1.10000, 0.90000, 1.10000, 0.90000
 2501,'SERRANO     ', 500.0000,1,  25,  25,   1,1.00883996, -26.683900, 1.10000, 0.90000, 1.10000, 0.90000
 2502,'SERRANO     ', 230.0000,1,  25,  25,   1,1.00514996, -28.027400, 1.10000, 0.90000, 1.10000, 0.90000
 2503,'S.ONOFRE    ', 230.0000,1,  25,  25,   1,1.00899994, -31.590701, 1.10000, 0.90000, 1.10000, 0.90000
 2533,'S.ONOFRE    ',  20.0000,2,  25,  25,   1,1.01076996, -31.007502, 1.10000, 0.90000, 1.10000, 0.90000
 2600,'ADELANTO    ', 500.0000,1,  90,  90,   1,1.04252005, -14.102000, 1.10000, 0.90000, 1.10000, 0.90000
 2601,'RINALDI     ', 500.0000,1,  26,  26,   1,1.04030001, -14.755200, 1.10000, 0.90000, 1.10000, 0.90000
 2602,'STA E       ', 500.0000,1,  26,  26,   1,1.01689005, -14.752199, 1.10000, 0.90000, 1.10000, 0.90000
 2603,'VICTORVL    ', 500.0000,1,  26,  26,   1,1.04270005, -14.821599, 1.10000, 0.90000, 1.10000, 0.90000
 2604,'INTERMT     ', 345.0000,1,  90,  90,   1,1.05999994,   2.076100, 1.10000, 0.90000, 1.10000, 0.90000
 2605,'STA B1      ', 287.0000,1,  26,  26,   1,1.01617002, -12.975500, 1.10000, 0.90000, 1.10000, 0.90000
 2606,'STA B2      ', 287.0000,1,  26,  26,   1,1.01617002, -12.975500, 1.10000, 0.90000, 1.10000, 0.90000
 2607,'VICTORVL    ', 287.0000,1,  26,  26,   1,1.03742003, -14.212000, 1.10000, 0.90000, 1.10000, 0.90000
 2608,'CASTAIC     ', 230.0000,1,  26,  26,   1,1.02295005, -15.757200, 1.10000, 0.90000, 1.10000, 0.90000
 2609,'GLENDAL     ', 230.0000,1,  26,  26,   1,0.99752998, -13.370100, 1.10000, 0.90000, 1.10000, 0.90000
 2610,'HAYNES      ', 230.0000,1,  26,  26,   1,1.00399995,   0.624400, 1.10000, 0.90000, 1.10000, 0.90000
 2611,'OLIVE       ', 230.0000,1,  26,  26,   1,1.02085996, -14.986501, 1.10000, 0.90000, 1.10000, 0.90000
 2612,'RINALDI     ', 230.0000,1,  26,  26,   1,1.01499999, -15.185300, 1.10000, 0.90000, 1.10000, 0.90000
 2613,'RIVER       ', 230.0000,1,  26,  26,   1,0.99259001, -10.044500, 1.10000, 0.90000, 1.10000, 0.90000
 2614,'STA BLD     ', 230.0000,1,  26,  26,   1,0.99908000, -11.659400, 1.10000, 0.90000, 1.10000, 0.90000
 2615,'STA E       ', 230.0000,1,  26,  26,   1,1.00325000, -14.668301, 1.10000, 0.90000, 1.10000, 0.90000
 2616,'STA F       ', 230.0000,1,  26,  26,   1,0.99430001, -10.384800, 1.10000, 0.90000, 1.10000, 0.90000
 2617,'STA G       ', 230.0000,1,  26,  26,   1,0.99561000, -11.990800, 1.10000, 0.90000, 1.10000, 0.90000
 2618,'STA J       ', 230.0000,1,  26,  26,   1,1.01245999, -16.350600, 1.10000, 0.90000, 1.10000, 0.90000
 2619,'SYLMARLA    ', 230.0000,1,  90,  90,   1,1.01337004, -14.641800, 1.10000, 0.90000, 1.10000, 0.90000
 2620,'VALLEY      ', 230.0000,1,  26,  26,   1,1.00928998, -15.403400, 1.10000, 0.90000, 1.10000, 0.90000
 2621,'STA B       ', 138.0000,1,  26,  26,   1,1.00908995, -12.753800, 1.10000, 0.90000, 1.10000, 0.90000
 2630,'HAYNES3G    ',  20.0000,2,  26,  26,   1,1.00497997,   1.272300, 1.10000, 0.90000, 1.10000, 0.90000
 2631,'OLIVE       ',  20.0000,2,  26,  26,   1,1.02149999, -14.922700, 1.10000, 0.90000, 1.10000, 0.90000
 2634,'INTERM1G    ',  20.0000,2,  90,  90,   1,1.06064999,   2.504900, 1.10000, 0.90000, 1.10000, 0.90000
 2637,'OWENS G     ',  20.0000,2,  26,  26,   1,1.01545000, -15.154701, 1.10000, 0.90000, 1.10000, 0.90000
 2638,'CASTAI4G    ',  20.0000,2,  26,  26,   1,1.02336001, -15.757200, 1.10000, 0.90000, 1.10000, 0.90000
 2901,'ELDORADO    ', 500.0000,1,  24,  29,   1,1.09191000, -13.892600, 1.10000, 0.90000, 1.10000, 0.90000
 2902,'MOHAVE      ', 500.0000,1,  24,  29,   1,1.09970999, -15.555699, 1.10000, 0.90000, 1.10000, 0.90000
 3101,'EMBRCDRD    ', 230.0000,1,  31,  31,   1,0.98526001, -11.065100, 1.10000, 0.90000, 1.10000, 0.90000
 3102,'MARTIN      ', 230.0000,1,  31,  31,   1,0.99049997,  -9.808100, 1.10000, 0.90000, 1.10000, 0.90000
 3103,'SANMATEO    ', 230.0000,1,  32,  31,   1,1.00000000,  -7.640000, 1.10000, 0.90000, 1.10000, 0.90000
 3104,'MARTIN      ', 115.0000,1,  31,  31,   1,0.98667002, -16.084699, 1.10000, 0.90000, 1.10000, 0.90000
 3105,'POTRERO     ', 115.0000,1,  31,  31,   1,1.00000000, -16.961001, 1.10000, 0.90000, 1.10000, 0.90000
 3133,'SANMATEO    ',  20.0000,2,  32,  31,   1,1.00118005,  -7.631100, 1.10000, 0.90000, 1.10000, 0.90000
 3135,'POTRERO     ',  20.0000,2,  31,  31,   1,1.00047004, -16.905900, 1.10000, 0.90000, 1.10000, 0.90000
 3201,'C.COSTA     ', 230.0000,1,  32,  32,   1,1.00705004,  -4.168300, 1.10000, 0.90000, 1.10000, 0.90000
 3202,'MORAGA      ', 230.0000,1,  32,  32,   1,1.00506997,  -4.836300, 1.10000, 0.90000, 1.10000, 0.90000
 3203,'NEWARK      ', 230.0000,1,  32,  32,   1,1.00163996,  -5.352500, 1.10000, 0.90000, 1.10000, 0.90000
 3204,'PITSBURG    ', 230.0000,1,  32,  32,   1,1.00999999,  -3.569400, 1.10000, 0.90000, 1.10000, 0.90000
 3205,'SOBRANTE    ', 230.0000,1,  32,  32,   1,1.00189996,  -5.046700, 1.10000, 0.90000, 1.10000, 0.90000
 3234,'PITSBURG    ',  20.0000,2,  32,  32,   1,1.01185000,  -2.905100, 1.10000, 0.90000, 1.10000, 0.90000
 3301,'METCALF     ', 500.0000,1,  32,  33,   1,0.99282998,  -6.011800, 1.10000, 0.90000, 1.10000, 0.90000
 3302,'JEFFERSN    ', 230.0000,1,  32,  33,   1,0.98505002, -10.057200, 1.10000, 0.90000, 1.10000, 0.90000
 3303,'METCALF     ', 230.0000,1,  32,  33,   1,1.00000000,  -6.886000, 1.10000, 0.90000, 1.10000, 0.90000
 3304,'MONTAVIS    ', 230.0000,1,  32,  33,   1,0.98953003,  -8.918300, 1.10000, 0.90000, 1.10000, 0.90000
 3305,'RAVENSWD    ', 230.0000,1,  32,  33,   1,0.99781001,  -7.050500, 1.10000, 0.90000, 1.10000, 0.90000
 3333,'METCALF     ',  20.0000,2,  32,  33,   1,1.00266004,  -6.654200, 1.10000, 0.90000, 1.10000, 0.90000
 3401,'GREGG       ', 230.0000,1,  34,  34,   1,0.97030002, -15.830399, 1.10000, 0.90000, 1.10000, 0.90000
 3402,'HELMS PP    ', 230.0000,1,  34,  34,   1,1.00000000, -16.020000, 1.10000, 0.90000, 1.10000, 0.90000
 3403,'MC CALL     ', 230.0000,1,  34,  34,   1,1.00000000,  -4.467600, 1.10000, 0.90000, 1.10000, 0.90000
 3404,'PANOCHE     ', 230.0000,1,  34,  34,   1,0.97522998,  -9.221600, 1.10000, 0.90000, 1.10000, 0.90000
 3405,'WILSON      ', 230.0000,1,  34,  34,   1,0.95898002, -17.860299, 1.10000, 0.90000, 1.10000, 0.90000
 3432,'HELMS PP    ',  20.0000,2,  34,  34,   1,1.00094998, -16.020000, 1.10000, 0.90000, 1.10000, 0.90000
 3433,'MC CALL     ',  20.0000,2,  34,  34,   1,1.00072002,  -4.167000, 1.10000, 0.90000, 1.10000, 0.90000
 3501,'FULTON      ', 230.0000,1,  35,  35,   1,1.00000000,  -0.337200, 1.10000, 0.90000, 1.10000, 0.90000
 3531,'FULTON      ',  20.0000,2,  35,  35,   1,1.00035000,  -0.025300, 1.10000, 0.90000, 1.10000, 0.90000
 3601,'HUMBOLDT    ', 115.0000,1,  36,  36,   1,1.01499999,   3.434900, 1.10000, 0.90000, 1.10000, 0.90000
 3631,'HUMBOLDT    ',  20.0000,2,  36,  36,   1,1.01482999,   3.462000, 1.10000, 0.90000, 1.10000, 0.90000
 3701,'SUMMIT      ', 115.0000,1,  37,  37,   1,1.00399995, -15.542399, 1.10000, 0.90000, 1.10000, 0.90000
 3731,'SUMMIT      ',  20.0000,2,  37,  37,   1,1.00498998, -15.479399, 1.10000, 0.90000, 1.10000, 0.90000
 3801,'DIABLO      ', 500.0000,1,  38,  38,   1,1.04900002,  -0.478900, 1.10000, 0.90000, 1.10000, 0.90000
 3802,'GATES       ', 500.0000,1,  38,  38,   1,1.00676000,  -5.662000, 1.10000, 0.90000, 1.10000, 0.90000
 3803,'MIDWAY      ', 500.0000,1,  38,  38,   1,1.02038002,  -8.330600, 1.10000, 0.90000, 1.10000, 0.90000
 3804,'GATES       ', 230.0000,1,  38,  38,   1,0.98982000,  -8.563100, 1.10000, 0.90000, 1.10000, 0.90000
 3805,'MIDWAY      ', 230.0000,1,  38,  38,   1,1.03499997,  -8.473800, 1.10000, 0.90000, 1.10000, 0.90000
 3806,'MORROBAY    ', 230.0000,1,  38,  38,   1,1.01900005,  -5.408100, 1.10000, 0.90000, 1.10000, 0.90000
 3831,'DIABLO1     ',  20.0000,2,  38,  38,   1,1.05080998,   0.069000, 1.10000, 0.90000, 1.10000, 0.90000
 3835,'MIDWAY      ',  20.0000,2,  38,  38,   1,1.03718996,  -8.399300, 1.10000, 0.90000, 1.10000, 0.90000
 3836,'MORROBAY    ',  20.0000,2,  38,  38,   1,1.01919997,  -5.220800, 1.10000, 0.90000, 1.10000, 0.90000
 3891,'GATES1      ', 500.0000,1,  38,  38,   1,1.04164004, -12.385700, 1.10000, 0.90000, 1.10000, 0.90000
 3892,'MIDWAY1     ', 500.0000,1,  38,  38,   1,1.01051998,  -3.046700, 1.10000, 0.90000, 1.10000, 0.90000
 3893,'MIDWAY2     ', 500.0000,1,  38,  38,   1,1.02256000, -18.166399, 1.10000, 0.90000, 1.10000, 0.90000
 3894,'MIDWAY3     ', 500.0000,1,  38,  38,   1,1.01028001,  -2.958200, 1.10000, 0.90000, 1.10000, 0.90000
 3895,'MIDWAY4     ', 500.0000,1,  38,  38,   1,1.02288997, -18.199399, 1.10000, 0.90000, 1.10000, 0.90000
 3896,'MIDWAY5     ', 500.0000,1,  38,  38,   1,1.01089001,  -2.690600, 1.10000, 0.90000, 1.10000, 0.90000
 3897,'MIDWAY6     ', 500.0000,1,  38,  38,   1,1.02385998, -17.949300, 1.10000, 0.90000, 1.10000, 0.90000
 3901,'LOSBANOS    ', 500.0000,1,  39,  39,   1,0.93760997,   1.184200, 1.10000, 0.90000, 1.10000, 0.90000
 3902,'MOSSLAND    ', 500.0000,1,  39,  39,   1,1.00000000,   0.151700, 1.10000, 0.90000, 1.10000, 0.90000
 3903,'TESLA       ', 500.0000,1,  39,  39,   1,1.00146997,  -3.565600, 1.10000, 0.90000, 1.10000, 0.90000
 3904,'VACA-DIX    ', 500.0000,1,  39,  39,   1,1.08141994,   8.142800, 1.10000, 0.90000, 1.10000, 0.90000
 3905,'TABLE MT    ', 500.0000,1,  39,  39,   1,1.03508997,   5.714100, 1.10000, 0.90000, 1.10000, 0.90000
 3906,'ROUND MT    ', 500.0000,1,  39,  39,   1,1.06427002,   9.774700, 1.10000, 0.90000, 1.10000, 0.90000
 3907,'BELLOTA     ', 230.0000,1,  39,  39,   1,0.96149999, -15.917500, 1.10000, 0.90000, 1.10000, 0.90000
 3908,'BRIGHTON    ', 230.0000,1,  39,  39,   1,0.96379000, -16.418200, 1.10000, 0.90000, 1.10000, 0.90000
 3909,'COLGATE     ', 230.0000,1,  39,  39,   1,0.96838999, -13.589300, 1.10000, 0.90000, 1.10000, 0.90000
 3910,'CORTINA     ', 230.0000,1,  39,  39,   1,0.97886002,  -8.566800, 1.10000, 0.90000, 1.10000, 0.90000
 3911,'COTWDPGE    ', 230.0000,1,  39,  39,   1,1.03652000,   3.588400, 1.10000, 0.90000, 1.10000, 0.90000
 3912,'GLENN       ', 230.0000,1,  39,  39,   1,1.02038002,  -4.314700, 1.10000, 0.90000, 1.10000, 0.90000
 3913,'GOLDHILL    ', 230.0000,1,  39,  39,   1,0.97799999, -12.398100, 1.10000, 0.90000, 1.10000, 0.90000
 3914,'IGNACIO     ', 230.0000,1,  39,  39,   1,0.99050999,  -4.561400, 1.10000, 0.90000, 1.10000, 0.90000
 3915,'LAKEVILE    ', 230.0000,1,  39,  39,   1,1.00124002,  -3.837200, 1.10000, 0.90000, 1.10000, 0.90000
 3916,'LOGAN CR    ', 230.0000,1,  39,  39,   1,1.01995003,  -4.450900, 1.10000, 0.90000, 1.10000, 0.90000
 3917,'LOSBANOS    ', 230.0000,1,  39,  39,   1,0.94562000,  -4.399900, 1.10000, 0.90000, 1.10000, 0.90000
 3918,'MOSSLAND    ', 230.0000,1,  39,  39,   1,0.99023998,  -5.996300, 1.10000, 0.90000, 1.10000, 0.90000
 3919,'PALERMO     ', 230.0000,1,  39,  39,   1,0.97393000, -10.816200, 1.10000, 0.90000, 1.10000, 0.90000
 3920,'RIO OSO     ', 230.0000,1,  39,  39,   1,0.97710001, -13.412800, 1.10000, 0.90000, 1.10000, 0.90000
 3921,'ROUND MT    ', 230.0000,1,  39,  39,   1,1.07000005,  12.838100, 1.10000, 0.90000, 1.10000, 0.90000
 3922,'TABLE MT    ', 230.0000,1,  39,  39,   1,0.99452001,  -4.974800, 1.10000, 0.90000, 1.10000, 0.90000
 3923,'TESLA       ', 230.0000,1,  39,  39,   1,1.01199996,  -1.228600, 1.10000, 0.90000, 1.10000, 0.90000
 3924,'VACA-DIX    ', 230.0000,1,  39,  39,   1,1.02113998,  -2.013700, 1.10000, 0.90000, 1.10000, 0.90000
 3925,'COTWDPGE    ', 115.0000,1,  39,  39,   1,1.02680004,   3.483400, 1.10000, 0.90000, 1.10000, 0.90000
 3926,'RIO OSO     ', 115.0000,1,  39,  39,   1,0.98958999, -15.625700, 1.10000, 0.90000, 1.10000, 0.90000
 3931,'ROUND MT    ',  20.0000,2,  39,  39,   1,1.07075000,  13.169200, 1.10000, 0.90000, 1.10000, 0.90000
 3932,'MOSSLAND    ',  20.0000,2,  39,  39,   1,1.00337005,   0.573700, 1.10000, 0.90000, 1.10000, 0.90000
 3933,'TESLA       ',  20.0000,3,  39,  39,   1,1.01199996,   0.000000, 1.10000, 0.90000, 1.10000, 0.90000
 4001,'MALIN       ', 500.0000,1,  40,  40,   1,1.08000004,  11.993900, 1.10000, 0.90000, 1.10000, 0.90000
 4002,'SUMMER L    ', 500.0000,1,  40,  40,   1,1.14174998,  15.803099, 1.10000, 0.90000, 1.10000, 0.90000
 4003,'BURNS       ', 500.0000,1,  40,  40,   1,1.20871997,  16.793700, 1.10000, 0.90000, 1.10000, 0.90000
 4004,'GRIZZLY     ', 500.0000,1,  40,  40,   1,1.11615002,  20.517799, 1.10000, 0.90000, 1.10000, 0.90000
 4005,'JOHN DAY    ', 500.0000,1,  40,  40,   1,1.12100005,  29.821101, 1.10000, 0.90000, 1.10000, 0.90000
 4006,'BIG EDDY    ', 500.0000,1,  40,  40,   1,1.11010003,  27.290600, 1.10000, 0.90000, 1.10000, 0.90000
 4007,'CELILOCA    ', 500.0000,1,  40,  40,   1,1.10993004,  27.170300, 1.10000, 0.90000, 1.10000, 0.90000
 4008,'MALIN       ', 345.0000,1,  40,  40,   1,1.06829000,   8.997100, 1.10000, 0.90000, 1.10000, 0.90000
 4009,'BIG EDDY    ', 230.0000,1,  40,  40,   1,1.10948002,  25.797000, 1.10000, 0.90000, 1.10000, 0.90000
 4010,'CELILO      ', 230.0000,1,  90,  90,   1,1.10915005,  25.393800, 1.10000, 0.90000, 1.10000, 0.90000
 4031,'MALIN       ',  20.0000,2,  40,  40,   1,1.08102000,  12.473500, 1.10000, 0.90000, 1.10000, 0.90000
 4035,'JOHN DAY    ',  20.0000,2,  40,  40,   1,1.12600005,  30.767000, 1.10000, 0.90000, 1.10000, 0.90000
 4039,'DALLES21    ',  20.0000,2,  40,  40,   1,1.11257994,  26.428601, 1.10000, 0.90000, 1.10000, 0.90000
 4090,'MALIN1      ', 500.0000,1,  40,  40,   1,1.13411999,  15.264699, 1.10000, 0.90000, 1.10000, 0.90000
 4091,'GRIZZLY1    ', 500.0000,1,  40,  40,   1,1.13014996,  18.520801, 1.10000, 0.90000, 1.10000, 0.90000
 4092,'GRIZZLY2    ', 500.0000,1,  40,  40,   1,1.09958994,  14.100300, 1.10000, 0.90000, 1.10000, 0.90000
 4093,'GRIZZLY3    ', 500.0000,1,  40,  40,   1,1.09844005,  13.251100, 1.10000, 0.90000, 1.10000, 0.90000
 4094,'GRIZZLY4    ', 500.0000,1,  40,  40,   1,1.11331999,  19.684701, 1.10000, 0.90000, 1.10000, 0.90000
 4095,'GRIZZLY5    ', 500.0000,1,  40,  40,   1,1.09809995,  13.729500, 1.10000, 0.90000, 1.10000, 0.90000
 4096,'GRIZZLY6    ', 500.0000,1,  40,  40,   1,1.09693003,  12.830200, 1.10000, 0.90000, 1.10000, 0.90000
 4097,'GRIZZLY7    ', 500.0000,1,  40,  40,   1,1.11269999,  19.639700, 1.10000, 0.90000, 1.10000, 0.90000
 4101,'COULEE      ', 500.0000,1,  40,  41,   1,1.12800002,  53.681599, 1.10000, 0.90000, 1.10000, 0.90000
 4102,'HANFORD     ', 500.0000,1,  40,  41,   1,1.09599996,  41.866201, 1.10000, 0.90000, 1.10000, 0.90000
 4103,'BELL        ', 500.0000,1,  40,  41,   1,1.09055996,  37.732099, 1.10000, 0.90000, 1.10000, 0.90000
 4104,'BELL        ', 230.0000,1,  40,  41,   1,1.06152999,  27.885999, 1.10000, 0.90000, 1.10000, 0.90000
 4131,'COULEE      ',  20.0000,2,  40,  41,   1,1.13183999,  55.955300, 1.10000, 0.90000, 1.10000, 0.90000
 4132,'HANFORD     ',  20.0000,2,  40,  41,   1,1.09413004,  43.483699, 1.10000, 0.90000, 1.10000, 0.90000
 4201,'NORTH       ', 500.0000,1,  40,  42,   1,1.12000000,  45.329001, 1.10000, 0.90000, 1.10000, 0.90000
 4202,'WCASCADE    ', 500.0000,1,  40,  42,   1,1.08000004,  27.204300, 1.10000, 0.90000, 1.10000, 0.90000
 4203,'WILLAMET    ', 500.0000,1,  40,  42,   1,1.03562999,  22.338299, 1.10000, 0.90000, 1.10000, 0.90000
 4204,'MERIDIAN    ', 500.0000,1,  40,  42,   1,1.07149005,  12.694900, 1.10000, 0.90000, 1.10000, 0.90000
 4231,'NORTH G3    ',  20.0000,2,  40,  42,   1,1.12647998,  46.374399, 1.10000, 0.90000, 1.10000, 0.90000
 4232,'WCASCADE    ',  20.0000,2,  40,  42,   1,1.08376002,  27.457900, 1.10000, 0.90000, 1.10000, 0.90000
 5001,'CANADA      ', 500.0000,1,  50,  50,   1,1.04999995,  46.536801, 1.10000, 0.90000, 1.10000, 0.90000
 5002,'CANALB      ', 500.0000,1,  50,  50,   1,1.05499995,  50.674300, 1.10000, 0.90000, 1.10000, 0.90000
 5003,'CA230TO     ', 230.0000,1,  50,  50,   1,1.04820001,  43.549201, 1.10000, 0.90000, 1.10000, 0.90000
 5004,'CA230       ', 230.0000,1,  50,  50,   1,1.05346000,  35.621602, 1.10000, 0.90000, 1.10000, 0.90000
 5031,'CANAD G1    ',  20.0000,2,  50,  50,   1,1.05526996,  48.489900, 1.10000, 0.90000, 1.10000, 0.90000
 5032,'CMAIN GM    ',  20.0000,2,  50,  50,   1,1.06129003,  53.359299, 1.10000, 0.90000, 1.10000, 0.90000
 6101,'MIDPOINT    ', 500.0000,1,  61,  61,   1,1.16457999,  18.310900, 1.10000, 0.90000, 1.10000, 0.90000
 6102,'MIDPOINT    ', 345.0000,1,  61,  61,   1,1.13000000,  18.683499, 1.10000, 0.90000, 1.10000, 0.90000
 6103,'BORAH       ', 345.0000,1,  61,  61,   1,1.09911001,  15.905701, 1.10000, 0.90000, 1.10000, 0.90000
 6104,'BORAH       ', 230.0000,1,  61,  61,   1,1.03189003,   8.524700, 1.10000, 0.90000, 1.10000, 0.90000
 6132,'MIDPOINT    ',  20.0000,2,  61,  61,   1,1.12860000,  19.165700, 1.10000, 0.90000, 1.10000, 0.90000
 6201,'COLSTRP     ', 500.0000,1,  60,  62,   1,1.12000000,  37.467600, 1.10000, 0.90000, 1.10000, 0.90000
...
0 / END OF BUS DATA, BEGIN LOAD DATA
 1002,'1 ',1,  10,  10,   226.842,   -37.472,     0.000,     0.000,     0.000,     0.000,   1,1
 1003,'1 ',1,  10,  10,  2153.322,   366.856,     0.000,     0.000,     0.000,     0.000,   1,1
 1004,'1 ',1,  10,  10,  1037.950,     5.521,     0.000,     0.000,     0.000,     0.000,   1,1
 1101,'1 ',1,  10,  10,  4527.366,  -137.044,     0.000,     0.000,     0.000,     0.000,   1,1
 1102,'1 ',1,  10,  10,   176.444,    23.004,     0.000,     0.000,     0.000,     0.000,   1,1
 1201,'1 ',1,  10,  10,   166.988,    -2.012,     0.000,     0.000,     0.000,     0.000,   1,1
 1202,'1 ',1,  10,  10,   875.610,   287.131,     0.000,     0.000,     0.000,     0.000,   1,1
 1301,'1 ',1,  10,  10,  2704.779,   352.826,     0.000,     0.000,     0.000,     0.000,   1,1
 1302,'1 ',1,  10,  10,    17.556,     2.304,     0.000,     0.000,     0.000,     0.000,   1,1
 1303,'1 ',1,  10,  10,  6235.136,   813.349,     0.000,     0.000,     0.000,     0.000,   1,1
 1401,'1 ',1,  10,  10,  6535.536,  1524.594,     0.000,     0.000,     0.000,     0.000,   1,1
 1402,'1 ',1,  10,  10,  5366.631,  -600.162,     0.000,     0.000,     0.000,     0.000,   1,1
 2000,'1 ',1,  20,  20,  2207.188,   287.916,     0.000,     0.000,     0.000,     0.000,   1,1
 2100,'1 ',1,  21,  21,   281.151,    54.830,     0.000,     0.000,     0.000,     0.000,   1,1
 2202,'1 ',1,  22,  22,  1545.949,   268.565,     0.000,     0.000,     0.000,     0.000,   1,1
 2203,'1 ',1,  22,  22,  1708.553,   278.273,     0.000,     0.000,     0.000,     0.000,   1,1
 2400,'1 ',1,  24,  24,   843.293,    76.663,     0.000,     0.000,     0.000,     0.000,   1,1
 2401,'1 ',1,  24,  24,   882.364,   105.214,     0.000,     0.000,     0.000,     0.000,   1,1
 2402,'1 ',1,  24,  24,  1080.020,    81.979,     0.000,     0.000,     0.000,     0.000,   1,1
 2403,'1 ',1,  24,  24,  1050.004,    38.543,     0.000,     0.000,     0.000,     0.000,   1,1
 2405,'1 ',1,  24,  24,   824.683,    22.901,     0.000,     0.000,     0.000,     0.000,   1,1
 2406,'1 ',1,  24,  24,   737.404,   -40.751,     0.000,     0.000,     0.000,     0.000,   1,1
 2407,'1 ',1,  24,  24,  1732.771,   -36.535,     0.000,     0.000,     0.000,     0.000,   1,1
 2408,'1 ',1,  24,  24,  1743.277,   -72.623,     0.000,     0.000,     0.000,     0.000,   1,1
 2409,'1 ',1,  24,  24,  1601.778,   -86.698,     0.000,     0.000,     0.000,     0.000,   1,1
 2410,'1 ',1,  24,  24,  1576.787,    58.184,     0.000,     0.000,     0.000,     0.000,   1,1
 2411,'1 ',1,  24,  24,  1087.624,    75.955,     0.000,     0.000,     0.000,     0.000,   1,1
 2502,'1 ',1,  25,  25,  2369.153,   -91.905,     0.000,     0.000,     0.000,     0.000,   1,1
 2503,'1 ',1,  25,  25,  1845.926,   201.991,     0.000,     0.000,     0.000,     0.000,   1,1
 2600,'1 ',1,  90,  90, -1863.904,     0.000,     0.000,     0.000,     0.000,     0.000,   1,1
 2602,'1 ',1,  26,  26,    99.278,    12.955,     0.000,     0.000,     0.000,     0.000,   1,1
 2604,'1 ',1,  90,  90,  2050.782,     0.000,     0.000,     0.000,     0.000,     0.000,   1,1
 2608,'1 ',1,  26,  26,    99.278,    12.955,     0.000,     0.000,     0.000,     0.000,   1,1
 2609,'1 ',1,  26,  26,   134.026,    26.805,     0.000,     0.000,     0.000,     0.000,   1,1
 2610,'1 ',1,  26,  26,    99.278,    12.955,     0.000,     0.000,     0.000,     0.000,   1,1
 2611,'1 ',1,  26,  26,    99.278,    12.955,     0.000,     0.000,     0.000,     0.000,   1,1
 2612,'1 ',1,  26,  26,   120.128,    24.819,     0.000,     0.000,     0.000,     0.000,   1,1
 2613,'1 ',1,  26,  26,   317.693,    64.532,     0.000,     0.000,     0.000,     0.000,   1,1
 2614,'1 ',1,  26,  26,   137.005,    27.798,     0.000,     0.000,     0.000,     0.000,   1,1
 2615,'1 ',1,  26,  26,   801.976,   131.148,     0.000,     0.000,     0.000,     0.000,   1,1
 2616,'1 ',1,  26,  26,   116.156,    23.827,     0.000,     0.000,     0.000,     0.000,   1,1
 2617,'1 ',1,  26,  26,   120.128,    24.819,     0.000,     0.000,     0.000,     0.000,   1,1
 2618,'1 ',1,  26,  26,   881.299,    -6.155,     0.000,     0.000,     0.000,     0.000,   1,1
 2619,'1 ',1,  90,  90, -2773.834,     0.000,     0.000,     0.000,     0.000,     0.000,   1,1
 2620,'1 ',1,  26,  26,   203.721,    17.473,     0.000,     0.000,     0.000,     0.000,   1,1
 2621,'1 ',1,  26,  26,   235.490,   -62.745,     0.000,     0.000,     0.000,     0.000,   1,1
 3101,'1 ',1,  31,  31,   341.306,    52.828,     0.000,     0.000,     0.000,     0.000,   1,1
 3102,'1 ',1,  31,  31,   159.465,    24.929,     0.000,     0.000,     0.000,     0.000,   1,1
 3103,'1 ',1,  32,  31,   419.611,    59.777,     0.000,     0.000,     0.000,     0.000,   1,1
 3104,'1 ',1,  31,  31,   309.972,    40.133,     0.000,     0.000,     0.000,     0.000,   1,1
 3105,'1 ',1,  31,  31,   239.302,    49.091,     0.000,     0.000,     0.000,     0.000,   1,1
 3201,'1 ',1,  32,  32,   462.477,    97.849,     0.000,     0.000,     0.000,     0.000,   1,1
 3202,'1 ',1,  32,  32,   586.179,    83.473,     0.000,     0.000,     0.000,     0.000,   1,1
 3203,'1 ',1,  32,  32,   657.105,   158.476,     0.000,     0.000,     0.000,     0.000,   1,1
 3204,'1 ',1,  32,  32,   668.788,    95.313,     0.000,     0.000,     0.000,     0.000,   1,1
 3205,'1 ',1,  32,  32,   546.061,    77.782,     0.000,     0.000,     0.000,     0.000,   1,1
 3302,'1 ',1,  32,  33,   345.326,    85.791,     0.000,     0.000,     0.000,     0.000,   1,1
 3303,'1 ',1,  32,  33,   625.411,   150.715,     0.000,     0.000,     0.000,     0.000,   1,1
 3304,'1 ',1,  32,  33,   533.482,   122.616,     0.000,     0.000,     0.000,     0.000,   1,1
 3305,'1 ',1,  32,  33,   430.320,    61.225,     0.000,     0.000,     0.000,     0.000,   1,1
 3401,'1 ',1,  34,  34,   557.707,   135.909,     0.000,     0.000,     0.000,     0.000,   1,1
 3403,'1 ',1,  34,  34,   515.969,    73.583,     0.000,     0.000,     0.000,     0.000,   1,1
 3404,'1 ',1,  34,  34,   438.461,    62.075,     0.000,     0.000,     0.000,     0.000,   1,1
 3405,'1 ',1,  34,  34,   448.898,    63.723,     0.000,     0.000,     0.000,     0.000,   1,1
 3501,'1 ',1,  35,  35,   625.016,    89.015,     0.000,     0.000,     0.000,     0.000,   1,1
 3601,'1 ',1,  36,  36,   104.856,    14.844,     0.000,     0.000,     0.000,     0.000,   1,1
 3701,'1 ',1,  37,  37,   317.051,    15.847,     0.000,     0.000,     0.000,     0.000,   1,1
 3801,'1 ',1,  38,  38,   191.223,    47.411,     0.000,     0.000,     0.000,     0.000,   1,1
 3804,'1 ',1,  38,  38,   223.640,    55.318,     0.000,     0.000,     0.000,     0.000,   1,1
 3805,'1 ',1,  38,  38,   499.389,   163.106,     0.000,     0.000,     0.000,     0.000,   1,1
 3806,'1 ',1,  38,  38,   289.586,    41.366,     0.000,     0.000,     0.000,     0.000,   1,1
 3902,'1 ',1,  39,  39,   152.991,    38.248,     0.000,     0.000,     0.000,     0.000,   1,1
 3903,'1 ',1,  39,  39,   213.248,    30.269,     0.000,     0.000,     0.000,     0.000,   1,1
 3907,'1 ',1,  39,  39,   461.357,    63.071,     0.000,     0.000,     0.000,     0.000,   1,1
 3908,'1 ',1,  39,  39,   200.279,    24.716,     0.000,     0.000,     0.000,     0.000,   1,1
 3909,'1 ',1,  39,  39,   170.957,    39.785,     0.000,     0.000,     0.000,     0.000,   1,1
 3910,'1 ',1,  39,  39,   241.839,    34.440,     0.000,     0.000,     0.000,     0.000,   1,1
 3911,'1 ',1,  39,  39,   233.135,    47.114,     0.000,     0.000,     0.000,     0.000,   1,1
 3912,'1 ',1,  39,  39,   174.503,    -0.634,     0.000,     0.000,     0.000,     0.000,   1,1
 3913,'1 ',1,  39,  39,   329.548,    43.435,     0.000,     0.000,     0.000,     0.000,   1,1
 3914,'1 ',1,  39,  39,   227.754,    52.549,     0.000,     0.000,     0.000,     0.000,   1,1
 3915,'1 ',1,  39,  39,   254.459,    53.402,     0.000,     0.000,     0.000,     0.000,   1,1
 3916,'1 ',1,  39,  39,   155.002,     0.000,     0.000,     0.000,     0.000,     0.000,   1,1
 3917,'1 ',1,  39,  39,   238.188,    43.995,     0.000,     0.000,     0.000,     0.000,   1,1
 3918,'1 ',1,  39,  39,   319.281,    75.464,     0.000,     0.000,     0.000,     0.000,   1,1
 3919,'1 ',1,  39,  39,   184.509,    24.094,     0.000,     0.000,     0.000,     0.000,   1,1
 3920,'1 ',1,  39,  39,   172.502,    23.677,     0.000,     0.000,     0.000,     0.000,   1,1
 3921,'1 ',1,  39,  39,   150.890,    34.821,     0.000,     0.000,     0.000,     0.000,   1,1
 3922,'1 ',1,  39,  39,   253.445,    31.919,     0.000,     0.000,     0.000,     0.000,   1,1
 3923,'1 ',1,  39,  39,   399.062,    67.021,     0.000,     0.000,     0.000,     0.000,   1,1
 3924,'1 ',1,  39,  39,   332.488,    47.165,     0.000,     0.000,     0.000,     0.000,   1,1
 3926,'1 ',1,  39,  39,   267.353,    16.668,     0.000,     0.000,     0.000,     0.000,   1,1
 4002,'1 ',1,  40,  40,   168.684,    21.998,     0.000,     0.000,     0.000,     0.000,   1,1
 4004,'1 ',1,  40,  40,   270.450,    35.297,     0.000,     0.000,     0.000,     0.000,   1,1
 4005,'1 ',1,  40,  40,   480.114,   157.418,     0.000,     0.000,     0.000,     0.000,   1,1
 4008,'1 ',1,  40,  40,   285.145,    37.198,     0.000,     0.000,     0.000,     0.000,   1,1
 4009,'1 ',1,  40,  40,  2208.743,   431.395,     0.000,     0.000,     0.000,     0.000,   1,1
 4010,'1 ',1,  90,  90,  3133.610,     0.000,     0.000,     0.000,     0.000,     0.000,   1,1
 4101,'1 ',1,  40,  41,   995.028,   129.784,     0.000,     0.000,     0.000,     0.000,   1,1
 4102,'1 ',1,  40,  41,   480.649,    68.664,     0.000,     0.000,     0.000,     0.000,   1,1
 4103,'1 ',1,  40,  41,    11.627,     1.509,     0.000,     0.000,     0.000,     0.000,   1,1
 4104,'1 ',1,  40,  41,  2527.772,   329.740,     0.000,     0.000,     0.000,     0.000,   1,1
 4201,'1 ',1,  40,  42,  5762.659,   461.013,     0.000,     0.000,     0.000,     0.000,   1,1
 4202,'1 ',1,  40,  42,  4558.239,   594.626,     0.000,     0.000,     0.000,     0.000,   1,1
 4203,'1 ',1,  40,  42,  4379.626,   571.331,     0.000,     0.000,     0.000,     0.000,   1,1
 4204,'1 ',1,  40,  42,  1014.520,   132.340,     0.000,     0.000,     0.000,     0.000,   1,1
 5001,'1 ',1,  50,  50,  7574.052,  1721.375,     0.000,     0.000,     0.000,     0.000,   1,1
 5002,'1 ',1,  50,  50,  9003.984,  1174.359,     0.000,     0.000,     0.000,     0.000,   1,1
 5003,'1 ',1,  50,  50,   615.218,    80.253,     0.000,     0.000,     0.000,     0.000,   1,1
 6102,'1 ',1,  61,  61,  1053.144,  -345.277,     0.000,     0.000,     0.000,     0.000,   1,1
 6103,'1 ',1,  61,  61,   391.888,    51.111,     0.000,     0.000,     0.000,     0.000,   1,1
 6104,'1 ',1,  61,  61,  1694.958,   221.085,     0.000,     0.000,     0.000,     0.000,   1,1
 6201,'1 ',1,  60,  62,   205.820,    26.857,     0.000,     0.000,     0.000,     0.000,   1,1
 6202,'1 ',1,  60,  62,    88.722,    13.528,     0.000,     0.000,     0.000,     0.000,   1,1
 6203,'1 ',1,  60,  62,  1112.346,   145.093,     0.000,     0.000,     0.000,     0.000,   1,1
 6204,'1 ',1,  60,  62,  1199.296,   156.461,     0.000,     0.000,     0.000,     0.000,   1,1
 6205,'1 ',1,  60,  62,   489.283,    86.344,     0.000,     0.000,     0.000,     0.000,   1,1
 6301,'1 ',1,  60,  63,   516.378,    67.362,     0.000,     0.000,     0.000,     0.000,   1,1
 6302,'1 ',1,  60,  63,   591.819,    77.219,     0.000,     0.000,     0.000,     0.000,   1,1
 6303,'1 ',1,  60,  63,   746.602,    97.404,     0.000,     0.000,     0.000,     0.000,   1,1
 6305,'1 ',1,  60,  63,    60.232,    19.752,     0.000,     0.000,     0.000,     0.000,   1,1
 6401,'1 ',1,  64,  64,  1672.373,   218.148,     0.000,     0.000,     0.000,     0.000,   1,1
 6402,'1 ',1,  64,  64,   272.512,    35.566,     0.000,     0.000,     0.000,     0.000,   1,1
 6403,'1 ',1,  64,  64,     2.198,     0.272,     0.000,     0.000,     0.000,     0.000,   1,1
 6404,'1 ',1,  64,  64,    28.980,     3.775,     0.000,     0.000,     0.000,     0.000,   1,1
 6501,'1 ',1,  60,  65,   195.546,    64.128,     0.000,     0.000,     0.000,     0.000,   1,1
 6502,'1 ',1,  60,  65,  1555.577,   277.672,     0.000,     0.000,     0.000,     0.000,   1,1
 6503,'1 ',1,  60,  65,   441.153,   144.603,     0.000,     0.000,     0.000,     0.000,   1,1
 6504,'1 ',1,  60,  65,   296.967,    38.730,     0.000,     0.000,     0.000,     0.000,   1,1
 6505,'1 ',1,  60,  65,     6.795,     2.231,     0.000,     0.000,     0.000,     0.000,   1,1
 6507,'1 ',1,  60,  65,   540.775,   -61.354,     0.000,     0.000,     0.000,     0.000,   1,1
 6508,'1 ',1,  60,  65,   131.834,    43.208,     0.000,     0.000,     0.000,     0.000,   1,1
 6509,'1 ',1,  60,  65,     8.593,     2.817,     0.000,     0.000,     0.000,     0.000,   1,1
 6510,'1 ',1,  60,  65,  1946.017,  -103.877,     0.000,     0.000,     0.000,     0.000,   1,1
 7001,'1 ',1,  60,  70,  7453.915,   972.350,     0.000,     0.000,     0.000,     0.000,   1,1
 7002,'1 ',1,  60,  70,  2554.835,  -138.069,     0.000,     0.000,     0.000,     0.000,   1,1
 8003,'1 ',1,  80,  80,   652.672,    85.141,     0.000,     0.000,     0.000,     0.000,   1,1
 8004,'1 ',1,  80,  80,  3787.891,   494.110,     0.000,     0.000,     0.000,     0.000,   1,1
 8005,'1 ',1,  80,  80,  1321.238,   172.370,     0.000,     0.000,     0.000,     0.000,   1,1
0 / END OF LOAD DATA, BEGIN FIXED SHUNT DATA
0 / END OF FIXED SHUNT DATA, BEGIN GENERATOR DATA
 1032,'C ',  1825.000,   398.340,  1030.000, -1030.000,1.01400, 1002,   100.000,   0.00000,   1.00000,   0.00000,   0.00000,1.00000,1,  100.0,  2060.000,     0.000,   1,1.0000,   0,1.0000,   0,1.0000,   0,1.0000,0, 1.0000
 1032,'G ',   262.800,   138.070,   357.000,  -357.000,1.01400, 1002,   100.000,   0.00000,   1.00000,   0.00000,   0.00000,1.00000,1,  100.0,   714.000,     0.000,   1,1.0000,   0,1.0000,   0,1.0000,   0,1.0000,0, 1.0000
 1034,'C ',  4064.000,   887.190,  2294.000, -2294.000,1.01400, 1002,   100.000,   0.00000,   1.00000,   0.00000,   0.00000,1.00000,1,  100.0,  4587.000,     0.000,   1,1.0000,   0,1.0000,   0,1.0000,   0,1.0000,0, 1.0000
 1034,'G ',  1402.000,   355.030,   918.000,  -918.000,1.01400, 1002,   100.000,   0.00000,   1.00000,   0.00000,   0.00000,1.00000,1,  100.0,  1835.000,     0.000,   1,1.0000,   0,1.0000,   0,1.0000,   0,1.0000,0, 1.0000
 1034,'H ',  1370.000,   270.720,   700.000,  -700.000,1.01400, 1002,   100.000,   0.00000,   1.00000,   0.00000,   0.00000,1.00000,1,  100.0,  1400.000,     0.000,   1,1.0000,   0,1.0000,   0,1.0000,   0,1.0000,0, 1.0000
 1131,'C ',   545.000,    34.690,   308.000,  -308.000,1.01000, 1101,   100.000,   0.00000,   1.00000,   0.00000,   0.00000,1.00000,1,  100.0,   615.000,     0.000,   1,1.0000,   0,1.0000,   0,1.0000,   0,1.0000,0, 1.0000
 1131,'G ',  1287.150,   215.790,  1916.000, -1916.000,1.01000, 1101,   100.000,   0.00000,   1.00000,   0.00000,   0.00000,1.00000,1,  100.0,  3830.800,     0.000,   1,1.0000,   0,1.0000,   0,1.0000,   0,1.0000,0, 1.0000
 1131,'W ',    48.000,    13.520,   120.000,  -120.000,1.01000, 1101,   100.000,   0.00000,   1.00000,   0.00000,   0.00000,1.00000,1,  100.0,   240.000,     0.000,   1,1.0000,   0,1.0000,   0,1.0000,   0,1.0000,0, 1.0000
 1232,'C ',  2140.000,   115.890,  1208.000, -1208.000,1.08000, 1202,   100.000,   0.00000,   1.00000,   0.00000,   0.00000,1.00000,1,  100.0,  2415.000,     0.000,   1,1.0000,   0,1.0000,   0,1.0000,   0,1.0000,0, 1.0000
 1232,'H ',  1244.400,    60.250,   628.000,  -628.000,1.08000, 1202,   100.000,   0.00000,   1.00000,   0.00000,   0.00000,1.00000,1,  100.0,  1256.000,     0.000,   1,1.0000,   0,1.0000,   0,1.0000,   0,1.0000,0, 1.0000
 1331,'G ',  1682.000,    60.550,   841.000,  -841.000,1.04500, 1301,   100.000,   0.00000,   1.00000,   0.00000,   0.00000,1.00000,1,  100.0,  1682.000,     0.000,   1,1.0000,   0,1.0000,   0,1.0000,   0,1.0000,0, 1.0000
 1331,'H ',  2438.000,    87.760,  1219.000, -1219.000,1.04500, 1301,   100.000,   0.00000,   1.00000,   0.00000,   0.00000,1.00000,1,  100.0,  2438.000,     0.000,   1,1.0000,   0,1.0000,   0,1.0000,   0,1.0000,0, 1.0000
 1333,'C ',   536.000,    66.450,   303.000,  -303.000,1.00500, 1303,   100.000,   0.00000,   1.00000,   0.00000,   0.00000,1.00000,1,  100.0,   605.000,     0.000,   1,1.0000,   0,1.0000,   0,1.0000,   0,1.0000,0, 1.0000
 1333,'G ',  4534.440,   602.240,  2746.000, -2746.000,1.00500, 1303,   100.000,   0.00000,   1.00000,   0.00000,   0.00000,1.00000,1,  100.0,  5491.000,     0.000,   1,1.0000,   0,1.0000,   0,1.0000,   0,1.0000,0, 1.0000
 1333,'R ',    75.000,     8.330,    38.000,   -38.000,1.00500, 1303,   100.000,   0.00000,   1.00000,   0.00000,   0.00000,1.00000,1,  100.0,    75.000,     0.000,   1,1.0000,   0,1.0000,   0,1.0000,   0,1.0000,0, 1.0000
 1431,'G ',  5012.160,   817.620,  3559.000, -3559.000,1.03500, 1401,   100.000,   0.00000,   1.00000,   0.00000,   0.00000,1.00000,1,  100.0,  7118.700,     0.000,   1,1.0000,   0,1.0000,   0,1.0000,   0,1.0000,0, 1.0000
 1431,'N ',  3825.000,   472.560,  2057.000, -2057.000,1.03500, 1401,   100.000,   0.00000,   1.00000,   0.00000,   0.00000,1.00000,1,  100.0,  4113.000,     0.000,   1,1.0000,   0,1.0000,   0,1.0000,   0,1.0000,0, 1.0000
 1431,'R ',    30.000,     3.450,    15.000,   -15.000,1.03500, 1401,   100.000,   0.00000,   1.00000,   0.00000,   0.00000,1.00000,1,  100.0,    30.000,     0.000,   1,1.0000,   0,1.0000,   0,1.0000,   0,1.0000,0, 1.0000
 2030,'E ',   629.000,    74.410,   350.000,  -350.000,1.00000, 2000,   100.000,   0.00000,   1.00000,   0.00000,   0.00000,1.00000,1,  100.0,   699.000,     0.000,   1,1.0000,   0,1.0000,   0,1.0000,   0,1.0000,0, 1.0000
 2030,'G ',  1829.040,   227.480,  1070.000, -1070.000,1.00000, 2000,   100.000,   0.00000,   1.00000,   0.00000,   0.00000,1.00000,1,  100.0,  2140.000,     0.000,   1,1.0000,   0,1.0000,   0,1.0000,   0,1.0000,0, 1.0000
 2130,'E ',   507.000,    58.350,   254.000,  -254.000,1.03500, 1401,   100.000,   0.00000,   1.00000,   0.00000,   0.00000,1.00000,1,  100.0,   507.000,     0.000,   1,1.0000,   0,1.0000,   0,1.0000,   0,1.0000,0, 1.0000
 2130,'G ',   171.400,    45.950,   200.000,  -200.000,1.03500, 1401,   100.000,   0.00000,   1.00000,   0.00000,   0.00000,1.00000,1,  100.0,   400.000,     0.000,   1,1.0000,   0,1.0000,   0,1.0000,   0,1.0000,0, 1.0000
 2130,'H ',   477.800,    57.430,   250.000,  -250.000,1.03500, 1401,   100.000,   0.00000,   1.00000,   0.00000,   0.00000,1.00000,1,  100.0,   500.000,     0.000,   1,1.0000,   0,1.0000,   0,1.0000,   0,1.0000,0, 1.0000
 2130,'R ',   172.000,    19.760,    86.000,   -86.000,1.03500, 1401,   100.000,   0.00000,   1.00000,   0.00000,   0.00000,1.00000,1,  100.0,   172.000,     0.000,   1,1.0000,   0,1.0000,   0,1.0000,   0,1.0000,0, 1.0000
 2233,'DG',   418.710,   127.190,   304.000,  -118.000,1.00500, 2203,   100.000,   0.00000,   1.00000,   0.00000,   0.00000,1.00000,1,  100.0,   706.000,     0.000,   1,1.0000,   0,1.0000,   0,1.0000,   0,1.0000,0, 1.0000
 2233,'EG',   344.130,   255.640,   611.000,  -181.000,1.00500, 2203,   100.000,   0.00000,   1.00000,   0.00000,   0.00000,1.00000,1,  100.0,  1253.000,     0.000,   1,1.0000,   0,1.0000,   0,1.0000,   0,1.0000,0, 1.0000
 2233,'TG',   231.000,    86.190,   206.000,  -155.000,1.00500, 2203,   100.000,   0.00000,   1.00000,   0.00000,   0.00000,1.00000,1,  100.0,   500.000,     0.000,   1,1.0000,   0,1.0000,   0,1.0000,   0,1.0000,0, 1.0000
 2332,'AG',   878.000,    91.480,   590.000,  -364.000,1.03500, 2302,   100.000,   0.00000,   1.00000,   0.00000,   0.00000,1.00000,1,  100.0,  1118.000,     0.000,   1,1.0000,   0,1.0000,   0,1.0000,   0,1.0000,0, 1.0000
 2438,'EG',  1043.270,    77.830,   728.000,  -454.000,1.00900, 2408,   100.000,   0.00000,   1.00000,   0.00000,   0.00000,1.00000,1,  100.0,  1563.000,     0.000,   1,1.0000,   0,1.0000,   0,1.0000,   0,1.0000,0, 1.0000
 2438,'ND',     0.000,     0.000,     0.500,     0.000,1.00900, 2408,   100.000,   0.00000,   1.00000,   0.00000,   0.00000,1.00000,1,  100.0,     0.000, -1006.000,   1,1.0000,   0,1.0000,   0,1.0000,   0,1.0000,0, 1.0000
 2438,'RG',  1816.960,   203.330,  1902.000, -1168.000,1.00900, 2408,   100.000,   0.00000,   1.00000,   0.00000,   0.00000,1.00000,1,  100.0,  3718.000,     0.000,   1,1.0000,   0,1.0000,   0,1.0000,   0,1.0000,0, 1.0000
 2438,'SG',   761.990,   245.980,  2301.000, -1053.000,1.00900, 2408,   100.000,   0.00000,   1.00000,   0.00000,   0.00000,1.00000,1,  100.0,  2803.000,     0.000,   1,1.0000,   0,1.0000,   0,1.0000,   0,1.0000,0, 1.0000
 2438,'SH',   670.000,    70.450,   659.000,  -523.000,1.00900, 2408,   100.000,   0.00000,   1.00000,   0.00000,   0.00000,1.00000,1,  100.0,  1340.000,     0.000,   1,1.0000,   0,1.0000,   0,1.0000,   0,1.0000,0, 1.0000
 2438,'SR',   473.000,    46.610,   436.000,  -197.000,1.00900, 2408,   100.000,   0.00000,   1.00000,   0.00000,   0.00000,1.00000,1,  100.0,   946.000,     0.000,   1,1.0000,   0,1.0000,   0,1.0000,   0,1.0000,0, 1.0000
 2438,'SW',   255.000,    59.970,   561.000,  -553.000,1.00900, 2408,   100.000,   0.00000,   1.00000,   0.00000,   0.00000,1.00000,1,  100.0,  1273.000,     0.000,   1,1.0000,   0,1.0000,   0,1.0000,   0,1.0000,0, 1.0000
 2438,'WG',  2316.200,   204.180,  1910.000, -1150.000,1.00900, 2408,   100.000,   0.00000,   1.00000,   0.00000,   0.00000,1.00000,1,  100.0,  3967.000,     0.000,   1,1.0000,   0,1.0000,   0,1.0000,   0,1.0000,0, 1.0000
 2533,'SN',  2076.000,   367.950,  1100.000,  -820.000,1.00900, 2503,   100.000,   0.00000,   1.00000,   0.00000,   0.00000,1.00000,1,  100.0,  2232.000,     0.000,   1,1.0000,   0,1.0000,   0,1.0000,   0,1.0000,0, 1.0000
 2630,'G ',  2281.800,   209.930,  1346.000, -1346.000,1.00400, 2610,   100.000,   0.00000,   1.00000,   0.00000,   0.00000,1.00000,1,  100.0,  2692.000,     0.000,   1,1.0000,   0,1.0000,   0,1.0000,   0,1.0000,0, 1.0000
 2631,'G ',   232.310,   131.920,   159.000,  -159.000,1.01500, 2612,   100.000,   0.00000,   1.00000,   0.00000,   0.00000,1.00000,1,  100.0,   318.000,     0.000,   1,1.0000,   0,1.0000,   0,1.0000,   0,1.0000,0, 1.0000
 2634,'C ',  1683.000,   145.080,   950.000,  -950.000,1.06000, 2604,   100.000,   0.00000,   1.00000,   0.00000,   0.00000,1.00000,1,  100.0,  1900.000,     0.000,   1,1.0000,   0,1.0000,   0,1.0000,   0,1.0000,0, 1.0000
 2637,'H ',   110.000,    91.260,   110.000,  -110.000,1.01500, 2612,   100.000,   0.00000,   1.00000,   0.00000,   0.00000,1.00000,1,  100.0,   110.000,     0.000,   1,1.0000,   0,1.0000,   0,1.0000,   0,1.0000,0, 1.0000
 2638,'H ',     0.000,    82.970,   100.000,  -100.000,1.01500, 2612,   100.000,   0.00000,   1.00000,   0.00000,   0.00000,1.00000,1,  100.0,  1272.000, -1272.000,   1,1.0000,   0,1.0000,   0,1.0000,   0,1.0000,0, 1.0000
 3133,'NG',    30.800,    18.290,    42.000,   -29.000,1.00000, 3103,   100.000,   0.00000,   1.00000,   0.00000,   0.00000,1.00000,1,  100.0,    42.000,     0.000,   1,1.0000,   0,1.0000,   0,1.0000,   0,1.0000,0, 1.0000
 3133,'SC',     0.000,   217.730,   500.000,  -500.000,1.00000, 3103,   100.000,   0.00000,   1.00000,   0.00000,   0.00000,1.00000,1,  100.0,     0.100,     0.000,   1,1.0000,   0,1.0000,   0,1.0000,   0,1.0000,0, 1.0000
 3135,'MG',   173.000,    65.810,   239.000,  -201.000,1.00000, 3105,   100.000,   0.00000,   1.00000,   0.00000,   0.00000,1.00000,1,  100.0,   369.000,     0.000,   1,1.0000,   0,1.0000,   0,1.0000,   0,1.0000,0, 1.0000
 3135,'NG',    19.600,    27.540,   100.000,   -85.000,1.00000, 3105,   100.000,   0.00000,   1.00000,   0.00000,   0.00000,1.00000,1,  100.0,    26.000,     0.000,   1,1.0000,   0,1.0000,   0,1.0000,   0,1.0000,0, 1.0000
 3234,'DG',    73.600,    21.790,   101.000,   -75.000,1.01000, 3204,   100.000,   0.00000,   1.00000,   0.00000,   0.00000,1.00000,1,  100.0,   121.000,     0.000,   1,1.0000,   0,1.0000,   0,1.0000,   0,1.0000,0, 1.0000
 3234,'MG',  1864.000,   268.340,  1244.000, -1234.000,1.01000, 3204,   100.000,   0.00000,   1.00000,   0.00000,   0.00000,1.00000,1,  100.0,  2628.000,     0.000,   1,1.0000,   0,1.0000,   0,1.0000,   0,1.0000,0, 1.0000
 3234,'NG',   294.400,    82.400,   382.000,  -212.000,1.01000, 3204,   100.000,   0.00000,   1.00000,   0.00000,   0.00000,1.00000,1,  100.0,   707.000,     0.000,   1,1.0000,   0,1.0000,   0,1.0000,   0,1.0000,0, 1.0000
 3234,'NW',   138.000,    16.180,    75.000,   -55.000,1.01000, 3204,   100.000,   0.00000,   1.00000,   0.00000,   0.00000,1.00000,1,  100.0,   690.000,     0.000,   1,1.0000,   0,1.0000,   0,1.0000,   0,1.0000,0, 1.0000
 3333,'CG',   674.800,   354.540,   398.000,  -226.000,1.00000, 3303,   100.000,   0.00000,   1.00000,   0.00000,   0.00000,1.00000,1,  100.0,   690.000,     0.000,   1,1.0000,   0,1.0000,   0,1.0000,   0,1.0000,0, 1.0000
 3333,'NG',   136.400,   179.940,   202.000,  -143.000,1.00000, 3303,   100.000,   0.00000,   1.00000,   0.00000,   0.00000,1.00000,1,  100.0,   213.000,     0.000,   1,1.0000,   0,1.0000,   0,1.0000,   0,1.0000,0, 1.0000
 3432,'NH',     0.000,   190.760,   510.000,  -306.000,1.00000, 3402,   100.000,   0.00000,   1.00000,   0.00000,   0.00000,1.00000,1,  100.0,  1218.000,  -924.000,   1,1.0000,   0,1.0000,   0,1.0000,   0,1.0000,0, 1.0000
 3433,'NG',    42.040,    29.160,   231.000,  -175.000,1.00000, 3403,   100.000,   0.00000,   1.00000,   0.00000,   0.00000,1.00000,1,  100.0,   628.000,     0.000,   1,1.0000,   0,1.0000,   0,1.0000,   0,1.0000,0, 1.0000
 3433,'NH',  1008.000,   118.530,   939.000,  -562.000,1.00000, 3403,   100.000,   0.00000,   1.00000,   0.00000,   0.00000,1.00000,1,  100.0,  2016.000,     0.000,   1,1.0000,   0,1.0000,   0,1.0000,   0,1.0000,0, 1.0000
 3531,'CE',   781.000,    58.430,  1004.000,  -599.000,1.00000, 3501,   100.000,   0.00000,   1.00000,   0.00000,   0.00000,1.00000,1,  100.0,   868.000,     0.000,   1,1.0000,   0,1.0000,   0,1.0000,   0,1.0000,0, 1.0000
 3531,'NE',   293.000,    14.720,   253.000,  -181.000,1.00000, 3501,   100.000,   0.00000,   1.00000,   0.00000,   0.00000,1.00000,1,  100.0,   325.000,     0.000,   1,1.0000,   0,1.0000,   0,1.0000,   0,1.0000,0, 1.0000
 3531,'NH',    15.000,     0.760,    13.000,   -10.000,1.00000, 3501,   100.000,   0.00000,   1.00000,   0.00000,   0.00000,1.00000,1,  100.0,    30.000,     0.000,   1,1.0000,   0,1.0000,   0,1.0000,   0,1.0000,0, 1.0000
 3631,'NB',    45.000,    -9.820,    20.000,   -14.000,1.01500, 3601,   100.000,   0.00000,   1.00000,   0.00000,   0.00000,1.00000,1,  100.0,    53.000,     0.000,   1,1.0000,   0,1.0000,   0,1.0000,   0,1.0000,0, 1.0000
 3631,'NG',    52.400,   -23.840,    74.000,   -34.000,1.01500, 3601,   100.000,   0.00000,   1.00000,   0.00000,   0.00000,1.00000,1,  100.0,   143.000,     0.000,   1,1.0000,   0,1.0000,   0,1.0000,   0,1.0000,0, 1.0000
 3731,'NH',   222.000,   200.030,   200.000,  -121.000,1.00400, 3701,   100.000,   0.00000,   1.00000,   0.00000,   0.00000,1.00000,1,  100.0,   255.000,     0.000,   1,1.0000,   0,1.0000,   0,1.0000,   0,1.0000,0, 1.0000
 3831,'NN',  2108.000,   390.230,  1175.000,  -980.000,1.04900, 3801,   100.000,   0.00000,   1.00000,   0.00000,   0.00000,1.00000,1,  100.0,  2267.000,     0.000,   1,1.0000,   0,1.0000,   0,1.0000,   0,1.0000,0, 1.0000
 3835,'ND',     0.000,     0.000,     0.500,     0.000,1.03500, 3805,   100.000,   0.00000,   1.00000,   0.00000,   0.00000,1.00000,1,  100.0,     0.000,  -510.000,   1,1.0000,   0,1.0000,   0,1.0000,   0,1.0000,0, 1.0000
 3835,'NG',   279.200,   453.760,   662.000,  -479.000,1.03500, 3805,   100.000,   0.00000,   1.00000,   0.00000,   0.00000,1.00000,1,  100.0,  1381.000,     0.000,   1,1.0000,   0,1.0000,   0,1.0000,   0,1.0000,0, 1.0000
 3836,'DG',   679.000,    42.710,   476.000,  -352.000,1.01900, 3806,   100.000,   0.00000,   1.00000,   0.00000,   0.00000,1.00000,1,  100.0,  1021.000,     0.000,   1,1.0000,   0,1.0000,   0,1.0000,   0,1.0000,0, 1.0000
 3931,'NB',   267.000,    17.390,   151.000,  -115.000,1.07000, 3921,   100.000,   0.00000,   1.00000,   0.00000,   0.00000,1.00000,1,  100.0,   314.000,     0.000,   1,1.0000,   0,1.0000,   0,1.0000,   0,1.0000,0, 1.0000
 3931,'NH',  1057.000,   147.900,  1284.000,  -946.000,1.07000, 3921,   100.000,   0.00000,   1.00000,   0.00000,   0.00000,1.00000,1,  100.0,  3696.000,     0.000,   1,1.0000,   0,1.0000,   0,1.0000,   0,1.0000,0, 1.0000
 3932,'DG',  1478.000,   682.250,  1150.000,  -500.000,1.00000, 3902,   100.000,   0.00000,   1.00000,   0.00000,   0.00000,1.00000,1,  100.0,  1478.000,     0.000,   1,1.0000,   0,1.0000,   0,1.0000,   0,1.0000,0, 1.0000
 3933,'CG',   555.200,    54.040,   363.000,   -82.000,1.01200, 3923,   100.000,   0.00000,   1.00000,   0.00000,   0.00000,1.00000,1,  100.0,   590.000,     0.000,   1,1.0000,   0,1.0000,   0,1.0000,   0,1.0000,0, 1.0000
 3933,'NB',   162.000,    11.460,    77.000,   -55.000,1.01200, 3923,   100.000,   0.00000,   1.00000,   0.00000,   0.00000,1.00000,1,  100.0,   191.000,     0.000,   1,1.0000,   0,1.0000,   0,1.0000,   0,1.0000,0, 1.0000
 3933,'ND',     0.000,     0.000,     0.500,     0.000,1.01200, 3923,   100.000,   0.00000,   1.00000,   0.00000,   0.00000,1.00000,1,  100.0,     0.000,  -449.000,   1,1.0000,   0,1.0000,   0,1.0000,   0,1.0000,0, 1.0000
 3933,'NG',   154.800,    74.440,   500.000,  -307.000,1.01200, 3923,   100.000,   0.00000,   1.00000,   0.00000,   0.00000,1.00000,1,  100.0,  1314.000,     0.000,   1,1.0000,   0,1.0000,   0,1.0000,   0,1.0000,0, 1.0000
 3933,'NH',  3467.000,   186.980,  1256.000, -1041.000,1.01200, 3923,   100.000,   0.00000,   1.00000,   0.00000,   0.00000,1.00000,1,  100.0,  3505.000,     0.000,   1,1.0000,   0,1.0000,   0,1.0000,   0,1.0000,0, 1.0000
 3933,'NW',    59.000,     1.940,    13.000,   -11.000,1.01200, 3923,   100.000,   0.00000,   1.00000,   0.00000,   0.00000,1.00000,1,  100.0,   293.000,     0.000,   1,1.0000,   0,1.0000,   0,1.0000,   0,1.0000,0, 1.0000
 4031,'G ',   953.200,    99.590,   502.000,  -502.000,1.08000, 4001,   100.000,   0.00000,   1.00000,   0.00000,   0.00000,1.00000,1,  100.0,  1003.000,     0.000,   1,1.0000,   0,1.0000,   0,1.0000,   0,1.0000,0, 1.0000
 4031,'H ',   878.420,    97.010,   489.000,  -489.000,1.08000, 4001,   100.000,   0.00000,   1.00000,   0.00000,   0.00000,1.00000,1,  100.0,   978.000,     0.000,   1,1.0000,   0,1.0000,   0,1.0000,   0,1.0000,0, 1.0000
 4031,'R ',    75.000,     7.540,    38.000,   -38.000,1.08000, 4001,   100.000,   0.00000,   1.00000,   0.00000,   0.00000,1.00000,1,  100.0,    75.000,     0.000,   1,1.0000,   0,1.0000,   0,1.0000,   0,1.0000,0, 1.0000
 4031,'W ',    48.000,    23.810,   120.000,  -120.000,1.08000, 4001,   100.000,   0.00000,   1.00000,   0.00000,   0.00000,1.00000,1,  100.0,   240.000,     0.000,   1,1.0000,   0,1.0000,   0,1.0000,   0,1.0000,0, 1.0000
 4035,'C ',   452.000,   102.510,   255.000,  -255.000,1.12100, 4005,   100.000,   0.00000,   1.00000,   0.00000,   0.00000,1.00000,1,  100.0,   510.000,     0.000,   1,1.0000,   0,1.0000,   0,1.0000,   0,1.0000,0, 1.0000
 4035,'G ',   445.340,   123.420,   307.000,  -307.000,1.12100, 4005,   100.000,   0.00000,   1.00000,   0.00000,   0.00000,1.00000,1,  100.0,   613.000,     0.000,   1,1.0000,   0,1.0000,   0,1.0000,   0,1.0000,0, 1.0000
 4035,'H ',  3075.200,   738.110,  1836.000, -1836.000,1.12100, 4005,   100.000,   0.00000,   1.00000,   0.00000,   0.00000,1.00000,1,  100.0,  3671.000,     0.000,   1,1.0000,   0,1.0000,   0,1.0000,   0,1.0000,0, 1.0000
 4035,'W ',   195.000,   196.190,   488.000,  -488.000,1.12100, 4005,   100.000,   0.00000,   1.00000,   0.00000,   0.00000,1.00000,1,  100.0,   976.000,     0.000,   1,1.0000,   0,1.0000,   0,1.0000,   0,1.0000,0, 1.0000
 4039,'G ',   185.200,    41.010,   102.000,  -102.000,1.12100, 4005,   100.000,   0.00000,   1.00000,   0.00000,   0.00000,1.00000,1,  100.0,   204.000,     0.000,   1,1.0000,   0,1.0000,   0,1.0000,   0,1.0000,0, 1.0000
 4039,'H ',  2461.430,   586.550,  1459.000, -1459.000,1.12100, 4005,   100.000,   0.00000,   1.00000,   0.00000,   0.00000,1.00000,1,  100.0,  2918.000,     0.000,   1,1.0000,   0,1.0000,   0,1.0000,   0,1.0000,0, 1.0000
 4039,'W ',    75.000,    75.580,   188.000,  -188.000,1.12100, 4005,   100.000,   0.00000,   1.00000,   0.00000,   0.00000,1.00000,1,  100.0,   375.000,     0.000,   1,1.0000,   0,1.0000,   0,1.0000,   0,1.0000,0, 1.0000
 4131,'H ', 10082.000,  1050.640,  6482.000, -6482.000,1.12800, 4101,   100.000,   0.00000,   1.00000,   0.00000,   0.00000,1.00000,1,  100.0, 12963.000,     0.000,   1,1.0000,   0,1.0000,   0,1.0000,   0,1.0000,0, 1.0000
 4131,'W ',    48.000,    19.450,   120.000,  -120.000,1.12800, 4101,   100.000,   0.00000,   1.00000,   0.00000,   0.00000,1.00000,1,  100.0,   240.000,     0.000,   1,1.0000,   0,1.0000,   0,1.0000,   0,1.0000,0, 1.0000
 4132,'G ',   575.800,   -88.300,  1473.000, -1473.000,1.09600, 4102,   100.000,   0.00000,   1.00000,   0.00000,   0.00000,1.00000,1,  100.0,  2945.000,     0.000,   1,1.0000,   0,1.0000,   0,1.0000,   0,1.0000,0, 1.0000
 4132,'H ',  4619.000,  -170.660,  2847.000, -2847.000,1.09600, 4102,   100.000,   0.00000,   1.00000,   0.00000,   0.00000,1.00000,1,  100.0,  5693.000,     0.000,   1,1.0000,   0,1.0000,   0,1.0000,   0,1.0000,0, 1.0000
 4132,'N ',  1079.000,   -34.770,   580.000,  -580.000,1.09600, 4102,   100.000,   0.00000,   1.00000,   0.00000,   0.00000,1.00000,1,  100.0,  1160.000,     0.000,   1,1.0000,   0,1.0000,   0,1.0000,   0,1.0000,0, 1.0000
 4132,'R ',   461.000,   -13.850,   231.000,  -231.000,1.09600, 4102,   100.000,   0.00000,   1.00000,   0.00000,   0.00000,1.00000,1,  100.0,   461.000,     0.000,   1,1.0000,   0,1.0000,   0,1.0000,   0,1.0000,0, 1.0000
 4132,'W ',    35.000,    -5.270,    88.000,   -88.000,1.09600, 4102,   100.000,   0.00000,   1.00000,   0.00000,   0.00000,1.00000,1,  100.0,   175.000,     0.000,   1,1.0000,   0,1.0000,   0,1.0000,   0,1.0000,0, 1.0000
 4231,'C ',  1290.000,   339.680,   728.000,  -728.000,1.12000, 4201,   100.000,   0.00000,   1.00000,   0.00000,   0.00000,1.00000,1,  100.0,  1456.000,     0.000,   1,1.0000,   0,1.0000,   0,1.0000,   0,1.0000,0, 1.0000
 4231,'G ',   364.600,   307.490,   659.000,  -659.000,1.12000, 4201,   100.000,   0.00000,   1.00000,   0.00000,   0.00000,1.00000,1,  100.0,  1317.000,     0.000,   1,1.0000,   0,1.0000,   0,1.0000,   0,1.0000,0, 1.0000
 4231,'H ',  2901.800,   843.610,  1808.000, -1808.000,1.12000, 4201,   100.000,   0.00000,   1.00000,   0.00000,   0.00000,1.00000,1,  100.0,  3615.000,     0.000,   1,1.0000,   0,1.0000,   0,1.0000,   0,1.0000,0, 1.0000
 4231,'R ',    47.000,    11.200,    24.000,   -24.000,1.12000, 4201,   100.000,   0.00000,   1.00000,   0.00000,   0.00000,1.00000,1,  100.0,    47.000,     0.000,   1,1.0000,   0,1.0000,   0,1.0000,   0,1.0000,0, 1.0000
 4232,'G ',   496.800,   489.950,   592.000,  -592.000,1.08000, 4202,   100.000,   0.00000,   1.00000,   0.00000,   0.00000,1.00000,1,  100.0,  1184.000,     0.000,   1,1.0000,   0,1.0000,   0,1.0000,   0,1.0000,0, 1.0000
 4232,'H ',   496.200,   237.530,   287.000,  -287.000,1.08000, 4202,   100.000,   0.00000,   1.00000,   0.00000,   0.00000,1.00000,1,  100.0,   573.000,     0.000,   1,1.0000,   0,1.0000,   0,1.0000,   0,1.0000,0, 1.0000
 4232,'W ',    43.000,    89.380,   108.000,  -108.000,1.08000, 4202,   100.000,   0.00000,   1.00000,   0.00000,   0.00000,1.00000,1,  100.0,   215.000,     0.000,   1,1.0000,   0,1.0000,   0,1.0000,   0,1.0000,0, 1.0000
 5031,'G ',   478.060,   150.070,   605.000,  -605.000,1.05000, 5001,   100.000,   0.00000,   1.00000,   0.00000,   0.00000,1.00000,1,  100.0,  1210.000,     0.000,   1,1.0000,   0,1.0000,   0,1.0000,   0,1.0000,0, 1.0000
 5031,'H ',  7074.880,  1091.200,  4399.000, -4399.000,1.05000, 5001,   100.000,   0.00000,   1.00000,   0.00000,   0.00000,1.00000,1,  100.0,  8798.800,     0.000,   1,1.0000,   0,1.0000,   0,1.0000,   0,1.0000,0, 1.0000
 5032,'C ',  5275.000,   610.580,  2977.000, -2977.000,1.05500, 5002,   100.000,   0.00000,   1.00000,   0.00000,   0.00000,1.00000,1,  100.0,  5954.000,     0.000,   1,1.0000,   0,1.0000,   0,1.0000,   0,1.0000,0, 1.0000
 5032,'G ',  1422.320,   451.220,  2200.000, -2200.000,1.05500, 5002,   100.000,   0.00000,   1.00000,   0.00000,   0.00000,1.00000,1,  100.0,  4400.000,     0.000,   1,1.0000,   0,1.0000,   0,1.0000,   0,1.0000,0, 1.0000
 5032,'H ',  3576.800,   452.240,  2205.000, -2205.000,1.05500, 5002,   100.000,   0.00000,   1.00000,   0.00000,   0.00000,1.00000,1,  100.0,  4410.200,     0.000,   1,1.0000,   0,1.0000,   0,1.0000,   0,1.0000,0, 1.0000
 5032,'R ',   108.000,    11.080,    54.000,   -54.000,1.05500, 5002,   100.000,   0.00000,   1.00000,   0.00000,   0.00000,1.00000,1,  100.0,   108.000,     0.000,   1,1.0000,   0,1.0000,   0,1.0000,   0,1.0000,0, 1.0000
 5032,'W ',   108.000,    55.580,   271.000,  -271.000,1.05500, 5002,   100.000,   0.00000,   1.00000,   0.00000,   0.00000,1.00000,1,  100.0,   541.000,     0.000,   1,1.0000,   0,1.0000,   0,1.0000,   0,1.0000,0, 1.0000
 6132,'C ',    13.000,    -1.800,     8.000,    -8.000,1.13000, 6102,   100.000,   0.00000,   1.00000,   0.00000,   0.00000,1.00000,1,  100.0,    15.000,     0.000,   1,1.0000,   0,1.0000,   0,1.0000,   0,1.0000,0, 1.0000
 6132,'G ',   203.600,   -33.040,   147.000,  -147.000,1.13000, 6102,   100.000,   0.00000,   1.00000,   0.00000,   0.00000,1.00000,1,  100.0,   293.000,     0.000,   1,1.0000,   0,1.0000,   0,1.0000,   0,1.0000,0, 1.0000
 6132,'H ',  1849.000,  -240.980,  1072.000, -1072.000,1.13000, 6102,   100.000,   0.00000,   1.00000,   0.00000,   0.00000,1.00000,1,  100.0,  2144.000,     0.000,   1,1.0000,   0,1.0000,   0,1.0000,   0,1.0000,0, 1.0000
 6132,'R ',    35.000,    -4.050,    18.000,   -18.000,1.13000, 6102,   100.000,   0.00000,   1.00000,   0.00000,   0.00000,1.00000,1,  100.0,    35.000,     0.000,   1,1.0000,   0,1.0000,   0,1.0000,   0,1.0000,0, 1.0000
 6132,'W ',    46.000,   -26.530,   118.000,  -118.000,1.13000, 6102,   100.000,   0.00000,   1.00000,   0.00000,   0.00000,1.00000,1,  100.0,   236.000,     0.000,   1,1.0000,   0,1.0000,   0,1.0000,   0,1.0000,0, 1.0000
 6231,'C ',  2225.000,  -253.670,  1256.000, -1256.000,1.12000, 6201,   100.000,   0.00000,   1.00000,   0.00000,   0.00000,1.00000,1,  100.0,  2511.000,     0.000,   1,1.0000,   0,1.0000,   0,1.0000,   0,1.0000,0, 1.0000
...